12
C6H6
C      1.383   0.000   0.000
C      0.691   1.197   0.000
C     -0.691   1.197   0.000
C     -1.383   0.000   0.000
C     -0.691  -1.197   0.000
C      0.691  -1.197   0.000
H      2.463   0.000   0.000
H      1.231   2.133   0.000
H     -1.231   2.133   0.000
H     -2.463   0.000   0.000
H     -1.231  -2.133   0.000
H      1.231  -2.133   0.000
